units(length='cm', time='s', quantity='mol', act_energy='cal/mol')

ideal_gas(name='gas',
          elements="H O Ar E",
          species="""H2     O2     H    O      AR      O2(a)     O2(b)    O(S)
                     O(D)    AR*  H2+  O2+    AR+     AR2+   E""",
          reactions='all',
          initial_state=state(temperature=300.0, pressure=OneAtm))

#-------------------------------------------------------------------------------
# Species data
#-------------------------------------------------------------------------------

species(name=u'H2',
        atoms='H:2',
        thermo=(NASA([300.00, 1000.00],
                     [ 2.34433112E+00,  7.98052075E-03, -1.94781510E-05,
                       2.01572094E-08, -7.37611761E-12, -9.17935173E+02,
                       6.83010238E-01]),
                NASA([1000.00, 5000.00],
                     [ 3.33727920E+00, -4.94024731E-05,  4.99456778E-07,
                      -1.79566394E-10,  2.00255376E-14, -9.50158922E+02,
                      -3.20502331E+00])),
        note=u'000000')

species(name=u'O2',
        atoms='O:2',
        thermo=(NASA([300.00, 1000.00],
                     [ 3.78245636E+00, -2.99673416E-03,  9.84730201E-06,
                      -9.68129509E-09,  3.24372837E-12, -1.06394356E+03,
                       3.65767573E+00]),
                NASA([1000.00, 5000.00],
                     [ 3.28253784E+00,  1.48308754E-03, -7.57966669E-07,
                       2.09470555E-10, -2.16717794E-14, -1.08845772E+03,
                       5.45323129E+00])),
        note=u'000000')

species(name=u'H',
        atoms='H:1',
        thermo=(NASA([300.00, 1000.00],
                     [ 2.50000000E+00,  7.05332819E-13, -1.99591964E-15,
                       2.30081632E-18, -9.27732332E-22,  2.54736599E+04,
                      -4.46682853E-01]),
                NASA([1000.00, 5000.00],
                     [ 2.50000001E+00, -2.30842973E-11,  1.61561948E-14,
                      -4.73515235E-18,  4.98197357E-22,  2.54736599E+04,
                      -4.46682914E-01])),
        note=u'000000')

species(name=u'O',
        atoms='O:1',
        thermo=(NASA([300.00, 1000.00],
                     [ 3.16826710E+00, -3.27931884E-03,  6.64306396E-06,
                      -6.12806624E-09,  2.11265971E-12,  2.91222592E+04,
                       2.05193346E+00]),
                NASA([1000.00, 5000.00],
                     [ 2.56942078E+00, -8.59741137E-05,  4.19484589E-08,
                      -1.00177799E-11,  1.22833691E-15,  2.92175791E+04,
                       4.78433864E+00])),
        note=u'000000')

species(name=u'AR',
        atoms='Ar:1',
        thermo=(NASA([300.00, 1000.00],
                     [ 2.50000000E+00,  0.00000000E+00,  0.00000000E+00,
                       0.00000000E+00,  0.00000000E+00, -7.45375000E+02,
                       4.36600000E+00]),
                NASA([1000.00, 5000.00],
                     [ 2.50000000E+00,  0.00000000E+00,  0.00000000E+00,
                       0.00000000E+00,  0.00000000E+00, -7.45375000E+02,
                       4.36600000E+00])),
        note=u'000000')

species(name=u'O2(a)',
        atoms='O:2',
        thermo=(NASA([300.00, 1000.00],
                     [ 3.21293600E+00,  1.12748640E-03, -5.75615000E-07,
                       1.31387730E-09, -8.76855400E-13,  1.03671830E+04,
                       6.03473700E+00]),
                NASA([1000.00, 5000.00],
                     [ 3.69757800E+00,  6.13519700E-04, -1.25884200E-07,
                       1.77528100E-11, -1.13643540E-15,  1.01385020E+04,
                       3.18916500E+00])),
        note=u'121386')

species(name=u'O2(b)',
        atoms='O:2',
        thermo=(NASA([300.00, 1000.00],
                     [ 3.21293600E+00,  1.12748640E-03, -5.75615000E-07,
                       1.31387730E-09, -8.76855400E-13,  1.79101210E+04,
                       6.03473700E+00]),
                NASA([1000.00, 5000.00],
                     [ 3.69757800E+00,  6.13519700E-04, -1.25884200E-07,
                       1.77528100E-11, -1.13643540E-15,  1.76814410E+04,
                       3.18916500E+00])),
                     note=u'121386')

species(name=u'O(S)',
        atoms='O:1',
        thermo=(NASA([300.00, 1000.00],
                     [ 2.94642800E+00, -1.63816650E-03,  2.42103100E-06,
                      -1.60284310E-09,  3.89069600E-13,  7.77710000E+04,
                       2.96399500E+00]),
                NASA([1000.00, 5000.00],
                     [ 2.54205900E+00, -2.75506100E-05, -3.10280300E-09,
                       4.55106700E-12, -4.36805100E-16,  7.78540000E+04,
                       4.92030800E+00])),
        note=u'120186')                     

species(name=u'O(D)',
        atoms='O:1',
        thermo=(NASA([300.00, 1000.00],
                     [ 2.94642800E+00, -1.63816650E-03,  2.42103100E-06,
                      -1.60284310E-09,  3.89069600E-13,  5.20090000E+04,
                       2.96399500E+00]),
                NASA([1000.00, 5000.00],
                     [ 2.54205900E+00, -2.75506100E-05, -3.10280300E-09,
                       4.55106700E-12, -4.36805100E-16,  5.20920000E+04,
                       4.92030800E+00])),
        note=u'120186')

species(name=u'AR*',
        atoms='Ar:1',
        thermo=(NASA([300.00, 1000.00],
                     [ 2.50000000E+00,  0.00000000E+00,  0.00000000E+00,
                       0.00000000E+00,  0.00000000E+00,  1.32710000E+05,
                       4.36600000E+00]),
                NASA([1000.00, 5000.00],
                     [ 2.50000000E+00,  0.00000000E+00,  0.00000000E+00,
                       0.00000000E+00,  0.00000000E+00,  1.32710000E+05,
                       4.36600000E+00])),
        note=u'120186')

species(name=u'H2+',
        atoms='H:2 E:-1',
        thermo=(NASA([200.00, 1000.00],
                     [ 2.34433112E+00,  7.98052075E-03, -1.94781510E-05,
                       2.01572094E-08, -7.37611761E-12,  1.77790000E+05,
                       6.83010238E-01]),
                NASA([1000.00, 3500.00],
                     [ 3.33727920E+00, -4.94024731E-05,  4.99456778E-07,
                      -1.79566394E-10,  2.00255376E-14,  1.77760000E+05,
                      -3.20502331E+00])),
        note=u'TPIS78')
        
species(name=u'O2+',
        atoms='E:-1 O:2',
        thermo=(NASA([300.00, 1000.00],
                     [ 3.89824400E+00, -2.10791900E-03,  5.66808900E-06,
                      -4.09682700E-09,  9.12440500E-13,  1.46206800E+05,
                       4.14517800E+00]),
                NASA([1000.00, 5000.00],
                     [ 3.28640200E+00,  1.48191400E-03, -5.95727200E-07,
                       1.08676000E-10, -7.23606700E-15,  1.46244200E+05,
                       6.74178700E+00])),
        note=u'RUS89')

species(name=u'AR+',
        atoms='Ar:1 E:-1',
        thermo=(NASA([300.00, 1000.00],
                     [ 2.50000000E+00,  0.00000000E+00,  0.00000000E+00,
                       0.00000000E+00,  0.00000000E+00,  1.82610000E+05,
                       4.36600000E+00]),
                NASA([1000.00, 5000.00],
                     [ 2.50000000E+00,  0.00000000E+00,  0.00000000E+00,
                       0.00000000E+00,  0.00000000E+00,  1.82610000E+05,
                       4.36600000E+00])),
        note=u'121286')

species(name=u'AR2+',
        atoms='Ar:2 E:-1',
        thermo=(NASA([250.00, 1000.00],
                     [ 4.04464307E+00,  1.13227062E-03,  6.95333367E-08,
                      -1.98766861E-09,  1.23077957E-12,  1.66443726E+05,
                       5.31438831E+00]),
                NASA([1000.00, 5000.00],
                     [ 4.62768259E+00, -7.29730033E-04,  8.39225575E-07,
                      -2.73209232E-10,  2.55890808E-14,  1.66347546E+05,
                       2.49385965E+00])),
        note=u'000000')

species(name=u'E',
        atoms='E:1',
        thermo=(NASA([300.00, 1000.00],
                     [ 2.50025150E+00,  0.00000000E+00,  0.00000000E+00,
                       0.00000000E+00,  0.00000000E+00, -7.45978390E+02,
                      -1.17368560E+01]),
                NASA([1000.00, 10000.00],
                     [ 2.50025150E+00,  0.00000000E+00,  0.00000000E+00,
                       0.00000000E+00,  0.00000000E+00, -7.45978450E+02,
                      -1.17368560E+01])),
        note=u'71091')

#-------------------------------------------------------------------------------
# Reaction data
#-------------------------------------------------------------------------------
#  ELECTRON-IMPACT REACTIONS

# Reaction 1
reaction('AR + E => AR* + E', [0.000000e+00, 0.0, 0.0])

# Reaction 2
reaction('AR + E => AR+ + E + E', [0.000000e+00, 0.0, 0.0])

# Reaction 3
reaction('O2 + E => O2(a) + E', [0.000000e+00, 0.0, 0.0])

# Reaction 4
reaction('O2 + E => O2(b) + E', [0.000000e+00, 0.0, 0.0])

# Reaction 5
reaction('O2 + E => O + O + E', [0.000000e+00, 0.0, 0.0])

# Reaction 6
reaction('O2 + E => O + O(D) + E', [0.000000e+00, 0.0, 0.0])

# Reaction 7
reaction('O2 + E => O(D) + O(D) + E', [0.000000e+00, 0.0, 0.0])

# Reaction 8
reaction('O2 + E => O + O(S) + E', [0.000000e+00, 0.0, 0.0])

# Reaction 9
reaction('O2 + E => O2+ + E + E', [0.000000e+00, 0.0, 0.0])

# Reaction 10
reaction('O + E => O(D) + E', [0.000000e+00, 0.0, 0.0])

# Reaction 11
reaction('O + E => O(S) + E', [0.000000e+00, 0.0, 0.0])

# Reaction 12
reaction('H2 + E => H + H + E', [0.000000e+00, 0.0, 0.0])

# Reaction 13
reaction('H2 + E => H2+ + E + E', [0.000000e+00, 0.0, 0.0])

#  AR+ RECOMBINATION REACTIONS [ Eckert (OSU 2017) ]

# Reaction 14
reaction('AR+ + AR + AR => AR2+ + AR', [4.714600e+16, 0.0, 0.0])

# Reaction 15
reaction('AR2+ + E => AR + AR', [4.817700e+17, 0.0, 0.0])

# Reaction 16
reaction('AR+ + E + E => AR + E', [3.626600e+13, 0.0, 0.0])

#  AR* QUENCHING REACTIONS [ Eckert (OSU 2017) ]

# Reaction 17
reaction('AR* + AR <=> AR + AR', [1.324900e+09, 0.0, 0.0])

# Reaction 18
reaction('AR* + AR + AR <=> AR + AR + AR', [5.077200e+15, 0.0, 0.0])

# Reaction 19
reaction('AR* + O2 <=> AR + O + O', [1.264600e+13, 0.0, 0.0])

# Reaction 20
reaction('AR* + O2 <=> AR + O + O(D)', [6.865200e+13, 0.0, 0.0])
#  Togai, Tsolar & Yetter (C&F 2016) - Reaction

# Reaction 21
reaction('AR* + H2 <=> AR + H + H', [3.974600e+13, 0.0, 0.0])

#  O2(a) QUENCHING REACTIONS [ Eckert (OSU 2017) ]

# Reaction 24
reaction('O2(a) + O2 <=> O2 + O2', [1.385100e+04, 0.0, 0.0])

# Reaction 25
reaction('O2(a) + O <=> O2 + O', [4.215500e+08, 0.0, 0.0])

# Reaction 26
reaction('O2(a) + AR <=> O2 + AR', [3.613300e+08, 0.0, 0.0])

#  O2(b) QUENCHING REACTIONS [ Eckert (OSU 2017) ]

# Reaction 28
reaction('O2(b) + O2 <=> O2(a) + O2', [2.589500e+02, 2.4, 478.916])

# Reaction 29
reaction('O2(b) + O <=> O2(a) + O', [4.817700e+10, 0.0, 0.0])

# Reaction 30
reaction('O2(b) + O <=> O2 + O(D)', [3.613300e+13, -0.1, 8348.24])

# Reaction 31
reaction('O2(b) + AR <=> O2 + AR', [6.022100e+07, 0.0, 0.0])

#  O(D) QUENCHING REACTIONS [ Eckert (OSU 2017) ]

# Reaction 32
reaction('O(D) + O2 <=> O + O2(b)', [1.541700e+13, 0.0, -133.143])

# Reaction 33
reaction('O(D) + O2 <=> O + O2', [3.854200e+12, 0.0, -133.143])

# Reaction 35
reaction('O(D) + AR <=> O + AR', [3.011100e+13, 0.0, 0.0])

#  O(S) QUENCHING REACTIONS [ Eckert (OSU 2017) ]

# Reaction 36
reaction('O(S) + O2 <=> O(D) + O2', [8.009400e+11, 0.0, 1689.12])

# Reaction 39
reaction('O(S) + O2(a) <=> O(D) + O2(b)', [2.168000e+13, 0.0, 0.0])

# Reaction 40
reaction('O(S) + O2(a) <=> O + O + O', [2.047500e+13, 0.0, 0.0])

# Reaction 41
reaction('O(S) + O2(a) <=> O + O2(a)', [7.828800e+13, 0.0, 0.0])

# Reaction 42
reaction('O(S) + O <=> O(D) + O', [3.011100e+13, 0.0, 598.148])

