units(length='cm', time='s', quantity='mol', act_energy='cal/mol')

ideal_gas(name='gas',
          elements="H O Ar E",
          species="""H2     O2     H2O    H      O      OH     HO2    H2O2
                     AR     O2(a)  O2(b)  O2+    O3     O(D)   O(S)   H2+
                     AR*    AR+    AR2+   E""",
          reactions='all',
          initial_state=state(temperature=300.0, pressure=OneAtm))

#-------------------------------------------------------------------------------
# Species data
#-------------------------------------------------------------------------------

species(name=u'H2',
        atoms='H:2',
        thermo=(NASA([300.00, 1000.00],
                     [ 2.34433112E+00,  7.98052075E-03, -1.94781510E-05,
                       2.01572094E-08, -7.37611761E-12, -9.17935173E+02,
                       6.83010238E-01]),
                NASA([1000.00, 5000.00],
                     [ 3.33727920E+00, -4.94024731E-05,  4.99456778E-07,
                      -1.79566394E-10,  2.00255376E-14, -9.50158922E+02,
                      -3.20502331E+00])),
        note=u'000000')

species(name=u'O2',
        atoms='O:2',
        thermo=(NASA([300.00, 1000.00],
                     [ 3.78245636E+00, -2.99673416E-03,  9.84730201E-06,
                      -9.68129509E-09,  3.24372837E-12, -1.06394356E+03,
                       3.65767573E+00]),
                NASA([1000.00, 5000.00],
                     [ 3.28253784E+00,  1.48308754E-03, -7.57966669E-07,
                       2.09470555E-10, -2.16717794E-14, -1.08845772E+03,
                       5.45323129E+00])),
        note=u'000000')

species(name=u'H2O',
        atoms='H:2 O:1',
        thermo=(NASA([300.00, 1000.00],
                     [ 4.19864056E+00, -2.03643410E-03,  6.52040211E-06,
                      -5.48797062E-09,  1.77197817E-12, -3.02937267E+04,
                      -8.49032208E-01]),
                NASA([1000.00, 5000.00],
                     [ 3.03399249E+00,  2.17691804E-03, -1.64072518E-07,
                      -9.70419870E-11,  1.68200992E-14, -3.00042971E+04,
                       4.96677010E+00])),
        note=u'000000')

species(name=u'H',
        atoms='H:1',
        thermo=(NASA([300.00, 1000.00],
                     [ 2.50000000E+00,  7.05332819E-13, -1.99591964E-15,
                       2.30081632E-18, -9.27732332E-22,  2.54736599E+04,
                      -4.46682853E-01]),
                NASA([1000.00, 5000.00],
                     [ 2.50000001E+00, -2.30842973E-11,  1.61561948E-14,
                      -4.73515235E-18,  4.98197357E-22,  2.54736599E+04,
                      -4.46682914E-01])),
        note=u'000000')

species(name=u'O',
        atoms='O:1',
        thermo=(NASA([300.00, 1000.00],
                     [ 3.16826710E+00, -3.27931884E-03,  6.64306396E-06,
                      -6.12806624E-09,  2.11265971E-12,  2.91222592E+04,
                       2.05193346E+00]),
                NASA([1000.00, 5000.00],
                     [ 2.56942078E+00, -8.59741137E-05,  4.19484589E-08,
                      -1.00177799E-11,  1.22833691E-15,  2.92175791E+04,
                       4.78433864E+00])),
        note=u'000000')

species(name=u'OH',
        atoms='H:1 O:1',
        thermo=(NASA([300.00, 1000.00],
                     [ 4.12530561E+00, -3.22544939E-03,  6.52764691E-06,
                      -5.79853643E-09,  2.06237379E-12,  3.38153812E+03,
                      -6.90432960E-01]),
                NASA([1000.00, 5000.00],
                     [ 2.86472886E+00,  1.05650448E-03, -2.59082758E-07,
                       3.05218674E-11, -1.33195876E-15,  3.71885774E+03,
                       5.70164073E+00])),
        note=u'000000')

species(name=u'HO2',
        atoms='H:1 O:2',
        thermo=(NASA([300.00, 1000.00],
                     [ 4.30179801E+00, -4.74912051E-03,  2.11582891E-05,
                      -2.42763894E-08,  9.29225124E-12,  2.94808040E+02,
                       3.71666245E+00]),
                NASA([1000.00, 5000.00],
                     [ 4.01721090E+00,  2.23982013E-03, -6.33658150E-07,
                       1.14246370E-10, -1.07908535E-14,  1.11856713E+02,
                       3.78510215E+00])),
        note=u'000000')

species(name=u'H2O2',
        atoms='H:2 O:2',
        thermo=(NASA([300.00, 1000.00],
                     [ 4.27611269E+00, -5.42822417E-04,  1.67335701E-05,
                      -2.15770813E-08,  8.62454363E-12, -1.77025821E+04,
                       3.43505074E+00]),
                NASA([1000.00, 5000.00],
                     [ 4.16500285E+00,  4.90831694E-03, -1.90139225E-06,
                       3.71185986E-10, -2.87908305E-14, -1.78617877E+04,
                       2.91615662E+00])),
        note=u'000000')

species(name=u'AR',
        atoms='Ar:1',
        thermo=(NASA([300.00, 1000.00],
                     [ 2.50000000E+00,  0.00000000E+00,  0.00000000E+00,
                       0.00000000E+00,  0.00000000E+00, -7.45375000E+02,
                       4.36600000E+00]),
                NASA([1000.00, 5000.00],
                     [ 2.50000000E+00,  0.00000000E+00,  0.00000000E+00,
                       0.00000000E+00,  0.00000000E+00, -7.45375000E+02,
                       4.36600000E+00])),
        note=u'000000')

species(name=u'O2(a)',
        atoms='O:2',
        thermo=(NASA([300.00, 1000.00],
                     [ 3.21293600E+00,  1.12748640E-03, -5.75615000E-07,
                       1.31387730E-09, -8.76855400E-13,  1.03671830E+04,
                       6.03473700E+00]),
                NASA([1000.00, 5000.00],
                     [ 3.69757800E+00,  6.13519700E-04, -1.25884200E-07,
                       1.77528100E-11, -1.13643540E-15,  1.01385020E+04,
                       3.18916500E+00])),
        note=u'121386')

species(name=u'O2(b)',
        atoms='O:2',
        thermo=(NASA([300.00, 1000.00],
                     [ 3.21293600E+00,  1.12748640E-03, -5.75615000E-07,
                       1.31387730E-09, -8.76855400E-13,  1.79101210E+04,
                       6.03473700E+00]),
                NASA([1000.00, 5000.00],
                     [ 3.69757800E+00,  6.13519700E-04, -1.25884200E-07,
                       1.77528100E-11, -1.13643540E-15,  1.76814410E+04,
                       3.18916500E+00])),
        note=u'121386')

species(name=u'O2+',
        atoms='E:-1 O:2',
        thermo=(NASA([300.00, 1000.00],
                     [ 3.89824400E+00, -2.10791900E-03,  5.66808900E-06,
                      -4.09682700E-09,  9.12440500E-13,  1.46206800E+05,
                       4.14517800E+00]),
                NASA([1000.00, 5000.00],
                     [ 3.28640200E+00,  1.48191400E-03, -5.95727200E-07,
                       1.08676000E-10, -7.23606700E-15,  1.46244200E+05,
                       6.74178700E+00])),
        note=u'RUS89')

species(name=u'O3',
        atoms='O:3',
        thermo=(NASA([300.00, 1000.00],
                     [ 2.46260800E+00,  9.58278100E-03, -7.08735900E-06,
                       1.36336830E-09,  2.96964700E-13,  1.60615220E+04,
                       1.21418700E+01]),
                NASA([1000.00, 5000.00],
                     [ 5.42937100E+00,  1.82038000E-03, -7.70560700E-07,
                       1.49929290E-10, -1.07556290E-14,  1.52352670E+04,
                      -3.26638600E+00])),
        note=u'121286')

species(name=u'O(D)',
        atoms='O:1',
        thermo=(NASA([300.00, 1000.00],
                     [ 2.94642800E+00, -1.63816650E-03,  2.42103100E-06,
                      -1.60284310E-09,  3.89069600E-13,  5.20090000E+04,
                       2.96399500E+00]),
                NASA([1000.00, 5000.00],
                     [ 2.54205900E+00, -2.75506100E-05, -3.10280300E-09,
                       4.55106700E-12, -4.36805100E-16,  5.20920000E+04,
                       4.92030800E+00])),
        note=u'120186')

species(name=u'O(S)',
        atoms='O:1',
        thermo=(NASA([300.00, 1000.00],
                     [ 2.94642800E+00, -1.63816650E-03,  2.42103100E-06,
                      -1.60284310E-09,  3.89069600E-13,  7.77710000E+04,
                       2.96399500E+00]),
                NASA([1000.00, 5000.00],
                     [ 2.54205900E+00, -2.75506100E-05, -3.10280300E-09,
                       4.55106700E-12, -4.36805100E-16,  7.78540000E+04,
                       4.92030800E+00])),
        note=u'120186')

species(name=u'H2+',
        atoms='H:2 E:-1',
        thermo=(NASA([200.00, 1000.00],
                     [ 2.34433112E+00,  7.98052075E-03, -1.94781510E-05,
                       2.01572094E-08, -7.37611761E-12,  1.77790000E+05,
                       6.83010238E-01]),
                NASA([1000.00, 3500.00],
                     [ 3.33727920E+00, -4.94024731E-05,  4.99456778E-07,
                      -1.79566394E-10,  2.00255376E-14,  1.77760000E+05,
                      -3.20502331E+00])),
        note=u'TPIS78')

species(name=u'AR*',
        atoms='Ar:1',
        thermo=(NASA([300.00, 1000.00],
                     [ 2.50000000E+00,  0.00000000E+00,  0.00000000E+00,
                       0.00000000E+00,  0.00000000E+00,  1.32710000E+05,
                       4.36600000E+00]),
                NASA([1000.00, 5000.00],
                     [ 2.50000000E+00,  0.00000000E+00,  0.00000000E+00,
                       0.00000000E+00,  0.00000000E+00,  1.32710000E+05,
                       4.36600000E+00])),
        note=u'120186')

species(name=u'AR+',
        atoms='Ar:1 E:-1',
        thermo=(NASA([300.00, 1000.00],
                     [ 2.50000000E+00,  0.00000000E+00,  0.00000000E+00,
                       0.00000000E+00,  0.00000000E+00,  1.82610000E+05,
                       4.36600000E+00]),
                NASA([1000.00, 5000.00],
                     [ 2.50000000E+00,  0.00000000E+00,  0.00000000E+00,
                       0.00000000E+00,  0.00000000E+00,  1.82610000E+05,
                       4.36600000E+00])),
        note=u'121286')

species(name=u'AR2+',
        atoms='Ar:2 E:-1',
        thermo=(NASA([250.00, 1000.00],
                     [ 4.04464307E+00,  1.13227062E-03,  6.95333367E-08,
                      -1.98766861E-09,  1.23077957E-12,  1.66443726E+05,
                       5.31438831E+00]),
                NASA([1000.00, 5000.00],
                     [ 4.62768259E+00, -7.29730033E-04,  8.39225575E-07,
                      -2.73209232E-10,  2.55890808E-14,  1.66347546E+05,
                       2.49385965E+00])),
        note=u'000000')

species(name=u'E',
        atoms='E:1',
        thermo=(NASA([300.00, 1000.00],
                     [ 2.50025150E+00,  0.00000000E+00,  0.00000000E+00,
                       0.00000000E+00,  0.00000000E+00, -7.45978390E+02,
                      -1.17368560E+01]),
                NASA([1000.00, 10000.00],
                     [ 2.50025150E+00,  0.00000000E+00,  0.00000000E+00,
                       0.00000000E+00,  0.00000000E+00, -7.45978450E+02,
                      -1.17368560E+01])),
        note=u'71091')

#-------------------------------------------------------------------------------
# Reaction data
#-------------------------------------------------------------------------------
#  ELECTRON-IMPACT REACTIONS

# Reaction 1
reaction('AR + E => AR* + E', [0.000000e+00, 0.0, 0.0])

# Reaction 2
reaction('AR + E => AR+ + E + E', [0.000000e+00, 0.0, 0.0])

# Reaction 3
reaction('O2 + E => O2(a) + E', [0.000000e+00, 0.0, 0.0])

# Reaction 4
reaction('O2 + E => O2(b) + E', [0.000000e+00, 0.0, 0.0])

# Reaction 5
reaction('O2 + E => O + O + E', [0.000000e+00, 0.0, 0.0])

# Reaction 6
reaction('O2 + E => O + O(D) + E', [0.000000e+00, 0.0, 0.0])

# Reaction 7
reaction('O2 + E => O(D) + O(D) + E', [0.000000e+00, 0.0, 0.0])

# Reaction 8
reaction('O2 + E => O + O(S) + E', [0.000000e+00, 0.0, 0.0])

# Reaction 9
reaction('O2 + E => O2+ + E + E', [0.000000e+00, 0.0, 0.0])

# Reaction 10
reaction('O + E => O(D) + E', [0.000000e+00, 0.0, 0.0])

# Reaction 11
reaction('O + E => O(S) + E', [0.000000e+00, 0.0, 0.0])

# Reaction 12
reaction('H2 + E => H + H + E', [0.000000e+00, 0.0, 0.0])

# Reaction 13
reaction('H2 + E => H2+ + E + E', [0.000000e+00, 0.0, 0.0])

#  AR+ RECOMBINATION REACTIONS [ Eckert (OSU 2017) ]

# Reaction 14
reaction('AR+ + AR + AR => AR2+ + AR', [4.714600e+16, 0.0, 0.0])

# Reaction 15
reaction('AR2+ + E => AR + AR', [4.817700e+17, 0.0, 0.0])

# Reaction 16
reaction('AR+ + E + E => AR + E', [3.626600e+13, 0.0, 0.0])

#  AR* QUENCHING REACTIONS [ Eckert (OSU 2017) ]

# Reaction 17
reaction('AR* + AR <=> AR + AR', [1.324900e+09, 0.0, 0.0])

# Reaction 18
reaction('AR* + AR + AR <=> AR + AR + AR', [5.077200e+15, 0.0, 0.0])

# Reaction 19
reaction('AR* + O2 <=> AR + O + O', [1.264600e+13, 0.0, 0.0])

# Reaction 20
reaction('AR* + O2 <=> AR + O + O(D)', [6.865200e+13, 0.0, 0.0])
#  Togai, Tsolar & Yetter (C&F 2016) - Reaction

# Reaction 21
reaction('AR* + H2 <=> AR + H + H', [3.974600e+13, 0.0, 0.0])

# Reaction 22
reaction('AR* + H2O <=> AR + OH + H', [1.560000e+14, 0.0, 0.0])

#  O2(a) QUENCHING REACTIONS [ Eckert (OSU 2017) ]

# Reaction 23
reaction('O2(a) + O3 <=> O2 + O2 + O', [5.841500e+11, 0.0, 3107.99])

# Reaction 24
reaction('O2(a) + O2 <=> O2 + O2', [1.385100e+04, 0.0, 0.0])

# Reaction 25
reaction('O2(a) + O <=> O2 + O', [4.215500e+08, 0.0, 0.0])

# Reaction 26
reaction('O2(a) + AR <=> O2 + AR', [3.613300e+08, 0.0, 0.0])

# Reaction 27
reaction('O2(b) + O3 <=> O2 + O2 + O', [1.084000e+13, 0.0, 0.0])

# Reaction 28
reaction('O2(b) + O2 <=> O2(a) + O2', [2.589500e+02, 2.4, 478.916])

# Reaction 29
reaction('O2(b) + O <=> O2(a) + O', [4.817700e+10, 0.0, 0.0])

# Reaction 30
reaction('O2(b) + O <=> O2 + O(D)', [3.613300e+13, -0.1, 8348.24])

# Reaction 31
reaction('O2(b) + AR <=> O2 + AR', [6.022100e+07, 0.0, 0.0])

#  O(D) QUENCHING REACTIONS [ Eckert (OSU 2017) ]

# Reaction 32
reaction('O(D) + O2 <=> O + O2(b)', [1.541700e+13, 0.0, -133.143])

# Reaction 33
reaction('O(D) + O2 <=> O + O2', [3.854200e+12, 0.0, -133.143])

# Reaction 34
reaction('O(D) + O3 <=> O + O + O2', [1.385100e+14, 0.0, 0.0])

# Reaction 35
reaction('O(D) + AR <=> O + AR', [3.011100e+13, 0.0, 0.0])

#  O(S) QUENCHING REACTIONS [ Eckert (OSU 2017) ]

# Reaction 36
reaction('O(S) + O2 <=> O(D) + O2', [8.009400e+11, 0.0, 1689.12])

# Reaction 37
reaction('O(S) + O3 <=> O(D) + O + O2', [1.746400e+14, 0.0, 0.0])

# Reaction 38
reaction('O(S) + O3 <=> O2 + O2', [1.746400e+14, 0.0, 0.0])

# Reaction 39
reaction('O(S) + O2(a) <=> O(D) + O2(b)', [2.168000e+13, 0.0, 0.0])

# Reaction 40
reaction('O(S) + O2(a) <=> O + O + O', [2.047500e+13, 0.0, 0.0])

# Reaction 41
reaction('O(S) + O2(a) <=> O + O2(a)', [7.828800e+13, 0.0, 0.0])

# Reaction 42
reaction('O(S) + O <=> O(D) + O', [3.011100e+13, 0.0, 598.148])

#  O3 REACTIONS [ Togai, Tsolas & Yetter (C&F 2016) ]

# Reaction 43
falloff_reaction('O3 (+M) <=> O + O2 (+M)',
                 kf=[1.370000e+15, 0.0, 25990.0],
                 kf0=[2.275000e+28, -4.37, 27297.0],
                 efficiencies='H2:3.0 O3:3.75 O2:1.5 O:6.0',
                 falloff=Troe(A=0.6417, T3=0.000391, T1=8680.7, T2=6060.8))

# Reaction 44
reaction('O3 + O <=> O2 + O2', [4.625000e+12, 0.0, 4093.64])

# Reaction 45
reaction('O3 + O <=> O2(a) + O2', [1.445300e+11, 0.0, 4093.64])

# Reaction 46
reaction('O3 + O <=> O2(b) + O2', [4.817700e+10, 0.0, 4093.64])

# Reaction 47
reaction('O3 + H <=> O2 + OH', [8.431000e+13, 0.0, 933.986])

# Reaction 48
reaction('O3 + H <=> O + HO2', [4.516600e+11, 0.0, 0.0])

# Reaction 49
reaction('O3 + OH <=> O2 + HO2', [1.848800e+11, 0.0, 830.651])

# Reaction 50
reaction('O3 + H2O <=> O2 + H2O2', [6.624400e+01, 0.0, 0.0])

# Reaction 51
reaction('O3 + HO2 <=> OH + O2 + O2', [6.624400e+09, 0.0, 993.602])

#  COUPLING REACTIONS [ Eckert (OSU 2017) ]

# Reaction 52
reaction('O2(a) + H2 <=> OH + OH', [1.686200e+15, 0.0, 35582.9])

# Reaction 53
reaction('O2(a) + H2 <=> O2 + H2', [1.565800e+05, 0.5, 0.0])

# Reaction 54
reaction('O2(a) + H <=> O + OH', [7.828800e+12, 0.0, 5027.63])

# Reaction 55
reaction('O2(a) + H <=> O2 + H', [3.131500e+13, 0.0, 5027.63])

# Reaction 56
reaction('O2(a) + HO2 <=> O2 + HO2', [1.204400e+13, 0.0, 0.0])

# Reaction 57
reaction('O2(b) + H2 <=> O2 + H2', [6.022100e+11, 0.0, 0.0])

# Reaction 58
reaction('O(D) + H2 <=> H + OH', [6.624400e+13, 0.0, 0.0])

# Reaction 59
reaction('O(S) + H2 <=> O + H2', [1.565800e+08, 0.0, 0.0])

# Reaction 60
reaction('O + O3 <=> O2 + O2', [1.204400e+13, 0.0, 4570.57])

# Reaction 61
reaction('O + O2 + O2 <=> O3 + O2', [3.126100e+17, -1.25, 0.0])

#  COMBUSTION REACTIONS

# Reaction 62
reaction('H + O2 <=> OH + O', [3.520000e+16, -0.7, 17069.79])

# Reaction 63
reaction('H2 + O <=> OH + H', [5.060000e+04, 2.67, 6290.63])

# Reaction 64
reaction('H2 + OH <=> H2O + H', [1.170000e+09, 1.3, 3635.28])

# Reaction 65
reaction('H2O + O <=> 2 OH', [7.000000e+05, 2.33, 14548.28])

# Reaction 66
three_body_reaction('2 H + M <=> H2 + M', [1.300000e+18, -1.0, 0.0],
                    efficiencies='H2:2.5 H2O:12.0 AR:0.5')

# Reaction 67
three_body_reaction('H + OH + M <=> H2O + M', [4.000000e+22, -2.0, 0.0],
                    efficiencies='H2:2.5 H2O:12.0 AR:0.38')

# Reaction 68
three_body_reaction('2 O + M <=> O2 + M', [6.170000e+15, -0.5, 0.0],
                    efficiencies='H2:2.5 H2O:12.0 AR:0.2')

# Reaction 69
three_body_reaction('H + O + M <=> OH + M', [4.710000e+18, -1.0, 0.0],
                    efficiencies='H2:2.5 H2O:12.0 AR:0.75')

# Reaction 70
falloff_reaction('H + O2 (+ M) <=> HO2 (+ M)',
                 kf=[4.650000e+12, 0.44, 0.0],
                 kf0=[5.750000e+19, -1.4, 0.0],
                 efficiencies='H2:2.5 H2O:16.0 AR:0.7',
                 falloff=Troe(A=0.5, T3=1e-30, T1=1e+30))

# Reaction 71
reaction('HO2 + H <=> 2 OH', [7.080000e+13, 0.0, 294.93])

# Reaction 72
reaction('HO2 + H <=> H2 + O2', [1.660000e+13, 0.0, 822.9])

# Reaction 73
reaction('HO2 + H <=> H2O + O', [3.100000e+13, 0.0, 1720.84])

# Reaction 74
reaction('HO2 + O <=> OH + O2', [2.000000e+13, 0.0, 0.0])

# Reaction 75
reaction('HO2 + OH <=> H2O + O2', [7.000000e+12, 0.0, -1094.65],
         options='duplicate')

# Reaction 76
reaction('HO2 + OH <=> H2O + O2', [4.500000e+14, 0.0, 10929.73],
         options='duplicate')

# Reaction 77
falloff_reaction('2 OH (+ M) <=> H2O2 (+ M)',
                 kf=[9.550000e+13, -0.27, 0.0],
                 kf0=[2.760000e+25, -3.2, 0.0],
                 efficiencies='H2:2.5 H2O:6.0 H2O2:6.0 AR:0.7',
                 falloff=Troe(A=0.57, T3=1e+30, T1=1e-30))

# Reaction 78
reaction('2 HO2 <=> H2O2 + O2', [1.030000e+14, 0.0, 11042.07],
         options='duplicate')

# Reaction 79
reaction('2 HO2 <=> H2O2 + O2', [1.940000e+11, 0.0, -1408.94],
         options='duplicate')

# Reaction 80
reaction('H2O2 + H <=> HO2 + H2', [2.300000e+13, 0.0, 7950.05])

# Reaction 81
reaction('H2O2 + H <=> H2O + OH', [1.000000e+13, 0.0, 3585.09])

# Reaction 82
reaction('H2O2 + OH <=> H2O + HO2', [1.740000e+12, 0.0, 1434.03],
         options='duplicate')

# Reaction 83
reaction('H2O2 + OH <=> H2O + HO2', [7.590000e+13, 0.0, 7272.94],
         options='duplicate')

# Reaction 84
reaction('H2O2 + O <=> HO2 + OH', [9.630000e+06, 2.0, 3991.4])
